8

C  0.000000000 -0.000000000 -0.500000000
C -0.000000000  0.000000000  0.500000000
H  0.866025469  0.500000038 -1.100000000
H  0.866025469 -0.500000038  1.100000000
H -0.000000000 -1.000000075 -1.100000000
H -0.866025469 -0.500000038  1.100000000
H -0.866025469  0.500000038 -1.100000000
H  0.000000000  1.000000075  1.100000000
