22

C       2.12876643       0.69021562       0.75337263
C       1.64496303       0.55526929      -0.84126261
C       0.11279108       1.03397517      -1.17364912
C      -0.82717619       1.63148014       0.03625948
C      -0.33390788       1.81713394       1.60956972
C       1.20292941       1.31247686       1.95610339
C       3.67168829       0.11344310       1.04426840
C       5.04470172       0.94778460       0.60088308
C       5.83349206       0.36672402      -0.55556019
C       5.23117977      -1.00619259      -1.29707039
C       4.55351490      -2.11059828      -0.25002815
C       3.80601199      -1.54908395       0.91878606
O       4.77563208      -0.85193536      -2.55311205
O      -2.22630786       2.02028804      -0.34376676
H       4.62999126      -3.27673320      -0.37784901
H       3.27066222      -2.27802006       1.68064644
H       6.83004271       0.82276124      -0.96774962
H       5.44173669       1.90041182       1.17187952
H      -0.34456938       0.97331828      -2.25292133
H       2.34606449       0.09198167      -1.68665061
H       1.59329067       1.38897988       3.06102867
H      -1.06283111       2.28481745       2.41909744