26

C          1.00238       -0.07420        0.02195
C          2.52259       -0.07617        0.00046
C          3.06161       -0.04750       -1.42944
C          4.59092       -0.04805       -1.44790
C          5.12955       -0.01810       -2.87918
C          6.65886       -0.01875       -2.89775
C          7.19772        0.01181       -4.32766
C          8.71789        0.01170       -4.34936
H          0.63788       -0.09530        1.05366
H          0.60159       -0.95014       -0.49801
H          0.60447        0.82417       -0.46064
H          2.88854       -0.97012        0.51879
H          2.89124        0.79449        0.55520
H          2.68824        0.84577       -1.94492
H          2.68720       -0.91872       -1.98069
H          4.96429       -0.94186       -0.93339
H          4.96536        0.82283       -0.89617
H          4.75624        0.87583       -3.39353
H          4.75502       -0.88885       -3.43102
H          7.03220       -0.91273       -2.38348
H          7.03340        0.85171       -2.34539
H          6.83069        0.90579       -4.84517
H          6.82997       -0.85877       -4.88315
H          9.11764        0.88782       -3.82881
H          9.08230        0.03393       -5.38117
H          9.11695       -0.88647       -3.86728
